
     RDKit          3D

  0  0  0  0  0  0  0  0  0  0999 V3000
M  V30 BEGIN CTAB
M  V30 COUNTS 82 89 0 0 0
M  V30 BEGIN ATOM
M  V30 1 Br 14.3503 -2.7537 3.2222 0
M  V30 2 C 12.7550 -2.1123 2.3741 0
M  V30 3 C 12.6817 -0.7863 2.0149 0
M  V30 4 C 11.5368 -0.3062 1.4014 0
M  V30 5 C 10.4464 -1.1052 1.1273 0
M  V30 6 C 10.5411 -2.4315 1.4959 0
M  V30 7 C 11.6820 -2.9455 2.1161 0
M  V30 8 C 9.2366 -0.6516 0.4911 0
M  V30 9 C 8.0296 -1.0576 1.0584 0
M  V30 10 C 6.8210 -0.6527 0.4926 0
M  V30 11 C 6.8366 0.1502 -0.6292 0
M  V30 12 Br 5.1842 0.7098 -1.4110 0
M  V30 13 C 8.0146 0.5700 -1.2159 0
M  V30 14 C 9.1906 0.1502 -0.6292 0
M  V30 15 H 13.5066 -0.0908 2.1998 0
M  V30 16 H 11.4996 0.7395 1.1279 0
M  V30 17 H 9.7335 -3.1517 1.3247 0
M  V30 18 H 11.7529 -3.9794 2.4021 0
M  V30 19 H 7.9972 -1.6884 1.9398 0
M  V30 20 H 5.9115 -0.9827 0.9537 0
M  V30 21 H 8.0461 1.2000 -2.0962 0
M  V30 22 Br 27.4658 -2.7233 3.2928 0
M  V30 23 C 25.8705 -2.0818 2.4447 0
M  V30 24 C 25.7972 -0.7558 2.0855 0
M  V30 25 C 24.6523 -0.2757 1.4720 0
M  V30 26 C 23.5619 -1.0747 1.1979 0
M  V30 27 C 23.6566 -2.4011 1.5664 0
M  V30 28 C 24.7975 -2.9150 2.1866 0
M  V30 29 C 22.3521 -0.6211 0.5617 0
M  V30 30 C 21.1451 -1.0271 1.1289 0
M  V30 31 C 19.9365 -0.6223 0.5632 0
M  V30 32 C 19.9521 0.1806 -0.5587 0
M  V30 33 C 21.1301 0.6004 -1.1453 0
M  V30 34 C 22.3061 0.1806 -0.5587 0
M  V30 35 H 26.6221 -0.0604 2.2703 0
M  V30 36 H 24.6151 0.7699 1.1984 0
M  V30 37 H 22.8491 -3.1212 1.3952 0
M  V30 38 H 24.8684 -3.9489 2.4727 0
M  V30 39 H 21.1127 -1.6579 2.0103 0
M  V30 40 H 19.0270 -0.9522 1.0242 0
M  V30 41 H 21.1616 1.2305 -2.0256 0
M  V30 42 C 11.0655 0.1388 -0.6563 0
M  V30 43 C 11.7090 1.3482 -0.7819 0
M  V30 44 C 13.0930 1.3913 -0.7665 0
M  V30 45 C 13.8730 0.2621 -0.6289 0
M  V30 46 C 13.2073 -0.9402 -0.5044 0
M  V30 47 C 11.8128 -1.0162 -0.5164 0
M  V30 48 C 15.3130 0.2577 -0.6063 0
M  V30 49 C 15.9578 -0.7062 -1.3799 0
M  V30 50 C 17.3508 -0.7649 -1.4041 0
M  V30 51 C 18.0773 0.1388 -0.6563 0
M  V30 52 C 17.4697 1.1059 0.1206 0
M  V30 53 C 16.0904 1.1340 0.1202 0
M  V30 54 Br 15.2226 2.4564 1.1840 0
M  V30 55 H 11.1580 2.2873 -0.8949 0
M  V30 56 H 13.5790 2.3522 -0.8674 0
M  V30 57 H 13.7298 -1.8962 -0.3900 0
M  V30 58 H 11.2968 -1.9544 -0.4192 0
M  V30 59 H 15.4041 -1.4247 -1.9741 0
M  V30 60 H 17.8146 -1.5181 -2.0093 0
M  V30 61 H 18.0234 1.8232 0.7137 0
M  V30 62 C 24.1200 0.1572 -0.5608 0
M  V30 63 C 24.7635 1.3667 -0.6864 0
M  V30 64 C 26.1475 1.4097 -0.6710 0
M  V30 65 C 26.9275 0.2805 -0.5334 0
M  V30 66 C 26.2618 -0.9217 -0.4089 0
M  V30 67 C 24.8673 -0.9978 -0.4209 0
M  V30 68 C 28.3675 0.2761 -0.5108 0
M  V30 69 C 29.0124 -0.6878 -1.2844 0
M  V30 70 C 30.4053 -0.7464 -1.3086 0
M  V30 71 C 31.1318 0.1572 -0.5608 0
M  V30 72 Br 33.0419 0.0838 -0.5884 0
M  V30 73 C 30.5243 1.1243 0.2161 0
M  V30 74 C 29.1449 1.1525 0.2157 0
M  V30 75 Br 28.2771 2.4749 1.2795 0
M  V30 76 H 24.2125 2.3057 -0.7994 0
M  V30 77 H 26.6335 2.3706 -0.7719 0
M  V30 78 H 26.7843 -1.8777 -0.2945 0
M  V30 79 H 24.3513 -1.9360 -0.3237 0
M  V30 80 H 28.4586 -1.4062 -1.8786 0
M  V30 81 H 30.8691 -1.4996 -1.9138 0
M  V30 82 H 31.0780 1.8416 0.8092 0
M  V30 END ATOM
M  V30 BEGIN BOND
M  V30 1 1 1 2
M  V30 2 2 2 3
M  V30 3 1 3 4
M  V30 4 2 4 5
M  V30 5 1 5 6
M  V30 6 2 6 7
M  V30 7 1 5 8
M  V30 8 2 8 9
M  V30 9 1 9 10
M  V30 10 2 10 11
M  V30 11 1 11 12
M  V30 12 1 11 13
M  V30 13 2 13 14
M  V30 14 1 7 2
M  V30 15 1 14 8
M  V30 16 1 3 15
M  V30 17 1 4 16
M  V30 18 1 6 17
M  V30 19 1 7 18
M  V30 20 1 9 19
M  V30 21 1 10 20
M  V30 22 1 13 21
M  V30 23 1 22 23
M  V30 24 2 23 24
M  V30 25 1 24 25
M  V30 26 2 25 26
M  V30 27 1 26 27
M  V30 28 2 27 28
M  V30 29 1 26 29
M  V30 30 2 29 30
M  V30 31 1 30 31
M  V30 32 2 31 32
M  V30 33 1 32 33
M  V30 34 2 33 34
M  V30 35 1 28 23
M  V30 36 1 34 29
M  V30 37 1 24 35
M  V30 38 1 25 36
M  V30 39 1 27 37
M  V30 40 1 28 38
M  V30 41 1 30 39
M  V30 42 1 31 40
M  V30 43 1 33 41
M  V30 44 2 42 43
M  V30 45 1 43 44
M  V30 46 2 44 45
M  V30 47 1 45 46
M  V30 48 2 46 47
M  V30 49 1 45 48
M  V30 50 2 48 49
M  V30 51 1 49 50
M  V30 52 2 50 51
M  V30 53 1 51 52
M  V30 54 2 52 53
M  V30 55 1 53 54
M  V30 56 1 47 42
M  V30 57 1 53 48
M  V30 58 1 43 55
M  V30 59 1 44 56
M  V30 60 1 46 57
M  V30 61 1 47 58
M  V30 62 1 49 59
M  V30 63 1 50 60
M  V30 64 1 52 61
M  V30 65 2 62 63
M  V30 66 1 63 64
M  V30 67 2 64 65
M  V30 68 1 65 66
M  V30 69 2 66 67
M  V30 70 1 65 68
M  V30 71 2 68 69
M  V30 72 1 69 70
M  V30 73 2 70 71
M  V30 74 1 71 72
M  V30 75 1 71 73
M  V30 76 2 73 74
M  V30 77 1 74 75
M  V30 78 1 67 62
M  V30 79 1 74 68
M  V30 80 1 63 76
M  V30 81 1 64 77
M  V30 82 1 66 78
M  V30 83 1 67 79
M  V30 84 1 69 80
M  V30 85 1 70 81
M  V30 86 1 73 82
M  V30 87 1 14 42
M  V30 88 1 32 51
M  V30 89 1 34 62
M  V30 END BOND
M  V30 END CTAB
M  END

$$$$
