
     RDKit          3D

  0  0  0  0  0  0  0  0  0  0999 V3000
M  V30 BEGIN CTAB
M  V30 COUNTS 30 32 0 0 0
M  V30 BEGIN ATOM
M  V30 1 C 3.6315 1.1472 0.1868 0
M  V30 2 C 5.0141 1.0321 0.1193 0
M  V30 3 C 5.6322 -0.1994 -0.0702 0
M  V30 4 N 4.8412 -1.3014 -0.1888 0
M  V30 5 C 3.5025 -1.1958 -0.1243 0
M  V30 6 C 2.8628 0.0104 0.0624 0
M  V30 7 C 1.4037 0.0174 0.1185 0
M  V30 8 C 0.6812 -0.9267 -0.6179 0
M  V30 9 C -0.6962 -0.9372 -0.5810 0
M  V30 10 C -1.4229 -0.0317 0.1727 0
M  V30 11 C -2.8821 -0.0876 0.1675 0
M  V30 12 C -3.4421 -1.3596 0.0138 0
M  V30 13 N -4.7803 -1.5369 -0.0089 0
M  V30 14 C -5.5778 -0.4660 0.1181 0
M  V30 15 C -5.0627 0.8219 0.2732 0
M  V30 16 C -3.6855 1.0067 0.2969 0
M  V30 17 C -0.7081 0.8999 0.8993 0
M  V30 18 C 0.6831 0.9240 0.8729 0
M  V30 19 H 3.1640 2.0925 0.3302 0
M  V30 20 H 5.6747 1.8813 0.2072 0
M  V30 21 H 6.7010 -0.3190 -0.1268 0
M  V30 22 H 2.9520 -2.1415 -0.2324 0
M  V30 23 H 1.2236 -1.6627 -1.2280 0
M  V30 24 H -1.1915 -1.6876 -1.1697 0
M  V30 25 H -2.8353 -2.2408 -0.0879 0
M  V30 26 H -6.6572 -0.6450 0.0964 0
M  V30 27 H -5.7527 1.6677 0.3720 0
M  V30 28 H -3.2467 1.9706 0.4144 0
M  V30 29 H -1.2635 1.6030 1.4841 0
M  V30 30 H 1.2370 1.6643 1.4498 0
M  V30 END ATOM
M  V30 BEGIN BOND
M  V30 1 2 1 2
M  V30 2 1 2 3
M  V30 3 2 3 4
M  V30 4 1 4 5
M  V30 5 2 5 6
M  V30 6 1 6 7
M  V30 7 2 7 8
M  V30 8 1 8 9
M  V30 9 2 9 10
M  V30 10 1 10 11
M  V30 11 2 11 12
M  V30 12 1 12 13
M  V30 13 2 13 14
M  V30 14 1 14 15
M  V30 15 2 15 16
M  V30 16 1 10 17
M  V30 17 2 17 18
M  V30 18 1 6 1
M  V30 19 1 18 7
M  V30 20 1 16 11
M  V30 21 1 1 19
M  V30 22 1 2 20
M  V30 23 1 3 21
M  V30 24 1 5 22
M  V30 25 1 8 23
M  V30 26 1 9 24
M  V30 27 1 12 25
M  V30 28 1 14 26
M  V30 29 1 15 27
M  V30 30 1 16 28
M  V30 31 1 17 29
M  V30 32 1 18 30
M  V30 END BOND
M  V30 END CTAB
M  END

$$$$
