
     RDKit          3D

  0  0  0  0  0  0  0  0  0  0999 V3000
M  V30 BEGIN CTAB
M  V30 COUNTS 22 23 0 0 0
M  V30 BEGIN ATOM
M  V30 1 Br 5.4140 -0.1090 -0.1297 0
M  V30 2 C 3.4972 -0.0746 -0.1055 0
M  V30 3 C 2.8529 1.1274 -0.2865 0
M  V30 4 C 1.4688 1.1703 -0.2719 0
M  V30 5 C 0.6896 0.0482 -0.0817 0
M  V30 6 C 1.3562 -1.1466 0.0978 0
M  V30 7 C 2.7507 -1.2223 0.0883 0
M  V30 8 C -0.7504 0.0438 -0.0598 0
M  V30 9 C -1.3683 -0.6777 0.9606 0
M  V30 10 C -2.7597 -0.7222 1.0406 0
M  V30 11 C -3.5115 -0.0466 0.1016 0
M  V30 12 Br -5.4197 -0.1024 0.2041 0
M  V30 13 C -2.9311 0.6772 -0.9217 0
M  V30 14 C -1.5524 0.6989 -0.9695 0
M  V30 15 Br -0.7217 1.6880 -2.3714 0
M  V30 16 H 3.4032 2.0605 -0.4432 0
M  V30 17 H 0.9822 2.1254 -0.4154 0
M  V30 18 H 0.8343 -2.0965 0.2568 0
M  V30 19 H 3.2673 -2.1547 0.2284 0
M  V30 20 H -0.7943 -1.2148 1.7076 0
M  V30 21 H -3.2023 -1.2859 1.8375 0
M  V30 22 H -3.5049 1.2135 -1.6673 0
M  V30 END ATOM
M  V30 BEGIN BOND
M  V30 1 1 1 2
M  V30 2 2 2 3
M  V30 3 1 3 4
M  V30 4 2 4 5
M  V30 5 1 5 6
M  V30 6 2 6 7
M  V30 7 1 5 8
M  V30 8 2 8 9
M  V30 9 1 9 10
M  V30 10 2 10 11
M  V30 11 1 11 12
M  V30 12 1 11 13
M  V30 13 2 13 14
M  V30 14 1 14 15
M  V30 15 1 7 2
M  V30 16 1 14 8
M  V30 17 1 3 16
M  V30 18 1 4 17
M  V30 19 1 6 18
M  V30 20 1 7 19
M  V30 21 1 9 20
M  V30 22 1 10 21
M  V30 23 1 13 22
M  V30 END BOND
M  V30 END CTAB
M  END

$$$$
