
     RDKit          3D

  0  0  0  0  0  0  0  0  0  0999 V3000
M  V30 BEGIN CTAB
M  V30 COUNTS 30 32 0 0 0
M  V30 BEGIN ATOM
M  V30 1 C 3.4241 0.7521 1.2829 0
M  V30 2 C 4.8158 0.7237 1.3928 0
M  V30 3 C 5.4932 -0.0913 0.5343 0
M  V30 4 N 4.9209 -0.8637 -0.4038 0
M  V30 5 C 3.5731 -0.8535 -0.5300 0
M  V30 6 C 2.8464 -0.0385 0.3235 0
M  V30 7 C 1.3897 -0.0602 0.1517 0
M  V30 8 C 0.6748 1.0857 0.4179 0
M  V30 9 C -0.6913 1.1148 0.2724 0
M  V30 10 C -1.3500 -0.0280 -0.1476 0
M  V30 11 C -2.8084 0.0199 -0.2963 0
M  V30 12 C -3.5496 0.8457 0.5474 0
M  V30 13 N -4.8836 0.8917 0.4147 0
M  V30 14 C -5.5637 0.1742 -0.5024 0
M  V30 15 C -4.8208 -0.6387 -1.3309 0
M  V30 16 C -3.4515 -0.7521 -1.2706 0
M  V30 17 C -0.6516 -1.1838 -0.4188 0
M  V30 18 C 0.7181 -1.1745 -0.2615 0
M  V30 19 H 2.8158 1.3714 1.9279 0
M  V30 20 H 5.3202 1.3266 2.1312 0
M  V30 21 H 6.5683 -0.1247 0.6072 0
M  V30 22 H 3.1174 -1.4717 -1.2795 0
M  V30 23 H 1.1769 1.9890 0.7486 0
M  V30 24 H -1.2274 2.0447 0.4925 0
M  V30 25 H -3.0547 1.4540 1.3133 0
M  V30 26 H -6.6404 0.2106 -0.6110 0
M  V30 27 H -5.3654 -1.2158 -2.0684 0
M  V30 28 H -2.8665 -1.3807 -1.9101 0
M  V30 29 H -1.1928 -2.0611 -0.7444 0
M  V30 30 H 1.2629 -2.0656 -0.4701 0
M  V30 END ATOM
M  V30 BEGIN BOND
M  V30 1 2 1 2
M  V30 2 1 2 3
M  V30 3 2 3 4
M  V30 4 1 4 5
M  V30 5 2 5 6
M  V30 6 1 6 7
M  V30 7 2 7 8
M  V30 8 1 8 9
M  V30 9 2 9 10
M  V30 10 1 10 11
M  V30 11 2 11 12
M  V30 12 1 12 13
M  V30 13 2 13 14
M  V30 14 1 14 15
M  V30 15 2 15 16
M  V30 16 1 10 17
M  V30 17 2 17 18
M  V30 18 1 6 1
M  V30 19 1 18 7
M  V30 20 1 16 11
M  V30 21 1 1 19
M  V30 22 1 2 20
M  V30 23 1 3 21
M  V30 24 1 5 22
M  V30 25 1 8 23
M  V30 26 1 9 24
M  V30 27 1 12 25
M  V30 28 1 14 26
M  V30 29 1 15 27
M  V30 30 1 16 28
M  V30 31 1 17 29
M  V30 32 1 18 30
M  V30 END BOND
M  V30 END CTAB
M  END

$$$$
